PERFORM/On Peak 2019 v23_Perform_NY/On Peak 2019 v23/On Peak 2019 v22/NYISO_onpeak2019_v22.raw
 0,    100.00, 33, 0, 1, 60.00       / June 28, 2022 00:32:03; Simulator Version 22; BuildDate 2022_5_2


    1,'MORTIMER    ', 115.0000,1,  66,  66,   1,1.00316823,  90.900406, 1.10000, 0.90000, 1.10000, 0.90000
    2,'UNKNOWN124~1',  69.0000,1,  70,  70,   1,1.00725365,  77.539695, 1.10000, 0.90000, 1.10000, 0.90000
    3,'UNKNOWN124~2', 115.0000,1,  70,  70,   1,1.00904834,  82.936603, 1.10000, 0.90000, 1.10000, 0.90000
    4,'UNKNOWN124~3', 115.0000,1,  68,  68,   1,0.99185723,  94.692821, 1.10000, 0.90000, 1.10000, 0.90000
    5,'UNKNOWN124~4', 115.0000,1,  70,  70,   1,1.00632298,  86.321618, 1.10000, 0.90000, 1.10000, 0.90000
    6,'UNKNOWN124~5', 115.0000,2,  70,  70,   1,1.01999998,  83.018074, 1.10000, 0.90000, 1.10000, 0.90000
    7,'UNKNOWN124~6', 115.0000,1,  70,  70,   1,1.01658165,  82.261617, 1.10000, 0.90000, 1.10000, 0.90000
    8,'UNKNOWN124~7', 115.0000,1,  70,  70,   1,1.01920927,  82.489376, 1.10000, 0.90000, 1.10000, 0.90000
    9,'UNKNOWN124~8', 115.0000,1,  71,  71,   1,1.01310337,  69.344868, 1.10000, 0.90000, 1.10000, 0.90000
   10,'UNKNOWN124~9', 115.0000,1,  68,  68,   1,0.98357117,  91.249599, 1.10000, 0.90000, 1.10000, 0.90000
   11,'UNKNOWN12~10', 115.0000,1,  70,  70,   1,1.00937653,  82.892986, 1.10000, 0.90000, 1.10000, 0.90000
   12,'UNKNOWN12~11', 115.0000,1,  70,  70,   1,1.01741910,  81.391615, 1.10000, 0.90000, 1.10000, 0.90000
   13,'UNKNOWN12~12', 115.0000,1,  70,  70,   1,1.01406157,  80.598479, 1.10000, 0.90000, 1.10000, 0.90000
   14,'UNKNOWN12~13', 115.0000,1,  69,  69,   1,1.00648534,  78.690609, 1.10000, 0.90000, 1.10000, 0.90000
   15,'UNKNOWN12~14', 115.0000,2,  69,  69,   1,1.01999998, 100.003122, 1.10000, 0.90000, 1.10000, 0.90000
   16,'BOONVILLE   ', 115.0000,1,  69,  69,   1,1.01301467,  88.533773, 1.10000, 0.90000, 1.10000, 0.90000
   17,'UNKNOWN12~15', 138.0000,2,  75,  75,   1,1.01077414,  48.881861, 1.10000, 0.90000, 1.10000, 0.90000
   18,'GLENWOOD L~1',  69.0000,2,  75,  75,   1,1.01586950,  59.241359, 1.10000, 0.90000, 1.10000, 0.90000
   19,'NORTHPORT   ', 115.0000,2,  75,  75,   1,1.01999998,  60.408413, 1.10000, 0.90000, 1.10000, 0.90000
   20,'UNKNOWN12~16', 115.0000,1,  69,  69,   1,1.01761818, 101.872886, 1.10000, 0.90000, 1.10000, 0.90000
   21,'UNKNOWN12~17', 115.0000,2,  69,  69,   1,1.01829386, 101.915643, 1.10000, 0.90000, 1.10000, 0.90000
   22,'UNKNOWN12~18',  69.0000,1,  70,  70,   1,1.00960958,  77.204217, 1.10000, 0.90000, 1.10000, 0.90000
   23,'UNKNOWN12~19', 115.0000,1,  69,  69,   1,1.01605272,  80.069338, 1.10000, 0.90000, 1.10000, 0.90000
   24,'UNKNOWN12~20', 115.0000,2,  67,  67,   1,1.01999998,  98.756244, 1.10000, 0.90000, 1.10000, 0.90000
   25,'UNKNOWN12~21', 115.0000,1,  69,  69,   1,1.01994491,  97.651679, 1.10000, 0.90000, 1.10000, 0.90000
   26,'UNKNOWN12~22', 345.0000,2,  74,  74,   1,1.01999998,  63.314071, 1.10000, 0.90000, 1.10000, 0.90000
   27,'UNKNOWN12~23', 115.0000,2,  67,  67,   1,1.01999998,  93.054654, 1.10000, 0.90000, 1.10000, 0.90000
   28,'UNKNOWN12~24', 115.0000,1,  69,  69,   1,1.01996684,  98.617256, 1.10000, 0.90000, 1.10000, 0.90000
   29,'UNKNOWN12~25', 115.0000,2,  67,  67,   1,1.01999998,  93.497066, 1.10000, 0.90000, 1.10000, 0.90000
   30,'UNKNOWN12~26', 115.0000,2,  67,  67,   1,1.01999998,  94.242971, 1.10000, 0.90000, 1.10000, 0.90000
   31,'UNKNOWN12~27', 115.0000,2,  70,  70,   1,1.01999998,  83.636131, 1.10000, 0.90000, 1.10000, 0.90000
   32,'UNKNOWN12~28', 115.0000,2,  70,  70,   1,1.01999998,  83.652735, 1.10000, 0.90000, 1.10000, 0.90000
   33,'UNKNOWN12~29', 115.0000,2,  65,  65,   1,1.01999998,  99.748848, 1.10000, 0.90000, 1.10000, 0.90000
   34,'HAMMERHILL  ', 115.0000,2,  67,  67,   1,1.01999998, 102.883645, 1.10000, 0.90000, 1.10000, 0.90000
   35,'UNKNOWN12~30', 115.0000,2,  68,  68,   1,0.99921221,  93.026275, 1.10000, 0.90000, 1.10000, 0.90000
   36,'UNKNOWN12~31', 115.0000,1,  68,  68,   1,0.99909616,  93.060733, 1.10000, 0.90000, 1.10000, 0.90000
   37,'UNKNOWN12~32', 115.0000,2,  65,  65,   1,1.01999998,  97.071454, 1.10000, 0.90000, 1.10000, 0.90000
   38,'BLISS WIND~1', 115.0000,2,  65,  65,   1,1.01999998,  98.291729, 1.10000, 0.90000, 1.10000, 0.90000
   39,'UNKNOWN12~33', 230.0000,2,  65,  65,   1,1.01999998, 101.869068, 1.10000, 0.90000, 1.10000, 0.90000
   40,'UNKNOWN12~34', 115.0000,1,  69,  69,   1,1.01924026, 104.133139, 1.10000, 0.90000, 1.10000, 0.90000
   41,'UNKNOWN12~35', 115.0000,2,  65,  65,   1,1.01999998,  96.110194, 1.10000, 0.90000, 1.10000, 0.90000
   42,'UNKNOWN12~36', 115.0000,1,  65,  65,   1,1.02001882,  94.597567, 1.10000, 0.90000, 1.10000, 0.90000
   43,'DUGAN       ', 115.0000,1,  65,  65,   1,1.01891434,  94.311375, 1.10000, 0.90000, 1.10000, 0.90000
   44,'UNKNOWN12~37', 115.0000,1,  65,  65,   1,1.01892400,  94.317133, 1.10000, 0.90000, 1.10000, 0.90000
   45,'TAP124231   ', 115.0000,1,  65,  65,   1,1.01893222,  94.319114, 1.10000, 0.90000, 1.10000, 0.90000
   46,'W OLEAN     ', 115.0000,1,  65,  65,   1,1.01996863,  94.585177, 1.10000, 0.90000, 1.10000, 0.90000
   47,'VALLEY CAT  ', 115.0000,1,  65,  65,   1,1.02169144,  94.885746, 1.10000, 0.90000, 1.10000, 0.90000
   48,'MACHIAS #13 ', 115.0000,1,  65,  65,   1,1.01996446,  95.121190, 1.10000, 0.90000, 1.10000, 0.90000
   49,'VALLEY      ', 115.0000,1,  69,  69,   1,1.01786900,  82.298589, 1.10000, 0.90000, 1.10000, 0.90000
   50,'UNKNOWN12~38', 115.0000,1,  69,  69,   1,1.00706339,  99.727804, 1.10000, 0.90000, 1.10000, 0.90000
   51,'UNKNOWN12~39', 115.0000,1,  67,  67,   1,1.01792765,  94.301710, 1.10000, 0.90000, 1.10000, 0.90000
   52,'UNKNOWN12~40', 115.0000,2,  67,  67,   1,1.01999998,  94.727415, 1.10000, 0.90000, 1.10000, 0.90000
   53,'UNKNOWN12~41', 115.0000,2,  67,  67,   1,1.01999998,  96.635340, 1.10000, 0.90000, 1.10000, 0.90000
   54,'UNKNOWN12~42', 230.0000,1,  67,  67,   1,1.02674520,  95.488524, 1.10000, 0.90000, 1.10000, 0.90000
   55,'UNKNOWN12~43', 115.0000,1,  67,  67,   1,1.01748765,  91.228030, 1.10000, 0.90000, 1.10000, 0.90000
   56,'UNKNOWN12~44', 115.0000,1,  67,  67,   1,1.01699293,  90.571881, 1.10000, 0.90000, 1.10000, 0.90000
   57,'UNKNOWN12~45', 115.0000,1,  67,  67,   1,1.01710653,  89.927828, 1.10000, 0.90000, 1.10000, 0.90000
   58,'UNKNOWN12~46', 115.0000,1,  67,  67,   1,1.01927161, 102.573035, 1.10000, 0.90000, 1.10000, 0.90000
   59,'UNKNOWN12~47', 115.0000,1,  69,  69,   1,1.02014005,  97.644979, 1.10000, 0.90000, 1.10000, 0.90000
   60,'UNKNOWN12~48',  69.0000,2,  69,  69,   1,1.01999998,  77.624834, 1.10000, 0.90000, 1.10000, 0.90000
   61,'UNKNOWN12~49', 115.0000,1,  67,  67,   1,1.01737022,  89.845674, 1.10000, 0.90000, 1.10000, 0.90000
   62,'UNKNOWN12~50', 345.0000,1,  70,  70,   1,1.02001309,  84.822159, 1.10000, 0.90000, 1.10000, 0.90000
   63,'UNKNOWN12~51', 345.0000,2,  70,  70,   1,1.01999998,  84.837937, 1.10000, 0.90000, 1.10000, 0.90000
   64,'UNKNOWN12~52', 115.0000,1,  69,  69,   1,1.00499773,  97.154769, 1.10000, 0.90000, 1.10000, 0.90000
   65,'BERRY RD    ', 115.0000,1,  65,  65,   1,1.02104962,  93.637454, 1.10000, 0.90000, 1.10000, 0.90000
   66,'BAKER ST    ', 115.0000,1,  65,  65,   1,1.01801896,  92.589846, 1.10000, 0.90000, 1.10000, 0.90000
   67,'CUMMINS     ', 115.0000,1,  65,  65,   1,1.01809812,  92.587381, 1.10000, 0.90000, 1.10000, 0.90000
   68,'SILVER CREEK', 115.0000,1,  65,  65,   1,1.01714301,  93.210362, 1.10000, 0.90000, 1.10000, 0.90000
   69,'FALCONER    ', 115.0000,2,  65,  65,   1,1.01999998,  93.283452, 1.10000, 0.90000, 1.10000, 0.90000
   70,'UNKNOWN12~53', 115.0000,1,  65,  65,   1,1.01983988,  93.243270, 1.10000, 0.90000, 1.10000, 0.90000
   71,'WESTFIELD ~1', 115.0000,1,  65,  65,   1,1.02259791,  93.783558, 1.10000, 0.90000, 1.10000, 0.90000
   72,'UNKNOWN12~54', 115.0000,1,  65,  65,   1,1.02013028,  93.596234, 1.10000, 0.90000, 1.10000, 0.90000
   73,'LUDIUM      ', 115.0000,1,  65,  65,   1,1.02007556,  93.587156, 1.10000, 0.90000, 1.10000, 0.90000
   74,'BENNETT RD  ', 115.0000,1,  65,  65,   1,1.01989663,  93.563223, 1.10000, 0.90000, 1.10000, 0.90000
   75,'E DUNKIRK   ', 115.0000,1,  65,  65,   1,1.01968729,  93.531545, 1.10000, 0.90000, 1.10000, 0.90000
   76,'UNKNOWN12~55', 115.0000,1,  65,  65,   1,1.01967883,  93.529537, 1.10000, 0.90000, 1.10000, 0.90000
   77,'MOON SWITC~1', 115.0000,1,  65,  65,   1,1.02037203,  93.369950, 1.10000, 0.90000, 1.10000, 0.90000
   78,'HARTFIELD   ', 115.0000,1,  65,  65,   1,1.02158153,  93.539290, 1.10000, 0.90000, 1.10000, 0.90000
   79,'EAST 13TH ~1', 345.0000,2,  74,  74,   1,1.01999998,  63.097055, 1.10000, 0.90000, 1.10000, 0.90000
   80,'UNKNOWN12~56', 115.0000,2,  69,  69,   1,1.01999998,  98.662233, 1.10000, 0.90000, 1.10000, 0.90000
   81,'WESTOVER    ', 115.0000,1,  67,  67,   1,1.02209032,  87.686078, 1.10000, 0.90000, 1.10000, 0.90000
   82,'UNKNOWN12~57', 115.0000,2,  69,  69,   1,1.01999998,  86.153943, 1.10000, 0.90000, 1.10000, 0.90000
   83,'UNKNOWN12~58', 115.0000,2,  69,  69,   1,1.01999998,  97.703500, 1.10000, 0.90000, 1.10000, 0.90000
   84,'UNKNOWN12~59', 115.0000,2,  70,  70,   1,1.01999998,  83.533056, 1.10000, 0.90000, 1.10000, 0.90000
   85,'COLD SPRIN~1', 115.0000,1,  65,  65,   1,1.01789021,  92.871168, 1.10000, 0.90000, 1.10000, 0.90000
   86,'UNKNOWN12~60', 115.0000,1,  65,  65,   1,1.01805520,  95.607492, 1.10000, 0.90000, 1.10000, 0.90000
   87,'UNKNOWN12~61', 115.0000,1,  65,  65,   1,1.01762891,  95.776669, 1.10000, 0.90000, 1.10000, 0.90000
   88,'YORKSHIRE   ', 115.0000,1,  65,  65,   1,1.01747775,  96.049767, 1.10000, 0.90000, 1.10000, 0.90000
   89,'ARCADE      ', 115.0000,1,  65,  65,   1,1.01746714,  96.145827, 1.10000, 0.90000, 1.10000, 0.90000
   90,'BIXBY HILL  ', 115.0000,1,  65,  65,   1,1.01763618,  96.417826, 1.10000, 0.90000, 1.10000, 0.90000
   91,'UNKNOWN12~62', 115.0000,1,  65,  65,   1,1.01799667,  96.808465, 1.10000, 0.90000, 1.10000, 0.90000
   92,'UNKNOWN12~63', 115.0000,1,  66,  66,   1,1.01289690,  92.580933, 1.10000, 0.90000, 1.10000, 0.90000
   93,'UNKNOWN12~64', 115.0000,1,  66,  66,   1,1.01869118,  95.640236, 1.10000, 0.90000, 1.10000, 0.90000
   94,'UNKNOWN12~65', 115.0000,1,  66,  66,   1,1.01920176,  98.060275, 1.10000, 0.90000, 1.10000, 0.90000
   95,'UNKNOWN12~66', 115.0000,2,  66,  66,   1,1.01999998,  98.247456, 1.10000, 0.90000, 1.10000, 0.90000
   96,'UNKNOWN12~67', 115.0000,1,  66,  66,   1,1.01712084,  97.551214, 1.10000, 0.90000, 1.10000, 0.90000
   97,'UNKNOWN12~68', 115.0000,1,  66,  66,   1,1.01718724,  97.567162, 1.10000, 0.90000, 1.10000, 0.90000
   98,'UNKNOWN12~69', 115.0000,1,  66,  66,   1,1.01426423,  93.243919, 1.10000, 0.90000, 1.10000, 0.90000
   99,'UNKNOWN12~70', 115.0000,1,  66,  66,   1,1.01206911,  92.548961, 1.10000, 0.90000, 1.10000, 0.90000
  100,'UNKNOWN12~71', 115.0000,1,  66,  66,   1,1.01029134,  91.951155, 1.10000, 0.90000, 1.10000, 0.90000
  101,'UNKNOWN12~72', 115.0000,1,  65,  65,   1,1.00101233,  92.105388, 1.10000, 0.90000, 1.10000, 0.90000
  102,'N AKRON     ', 115.0000,1,  65,  65,   1,1.00104547,  92.113017, 1.10000, 0.90000, 1.10000, 0.90000
  103,'UNKNOWN12~73', 115.0000,1,  65,  65,   1,1.00180364,  92.303894, 1.10000, 0.90000, 1.10000, 0.90000
  104,'TONAWANDA   ', 115.0000,1,  65,  65,   1,1.01449847,  95.614172, 1.10000, 0.90000, 1.10000, 0.90000
  105,'GETZVILLE   ', 115.0000,1,  65,  65,   1,1.01463437,  95.484282, 1.10000, 0.90000, 1.10000, 0.90000
  106,'UNKNOWN12~74', 115.0000,1,  65,  65,   1,1.01524377,  95.615183, 1.10000, 0.90000, 1.10000, 0.90000
  107,'UNKNOWN12~75', 115.0000,1,  65,  65,   1,1.01651263,  95.909885, 1.10000, 0.90000, 1.10000, 0.90000
  108,'UNKNOWN12~76', 115.0000,1,  67,  67,   1,1.02166843,  89.785992, 1.10000, 0.90000, 1.10000, 0.90000
  109,'UNKNOWN12~77', 115.0000,1,  67,  67,   1,1.02120352,  90.081207, 1.10000, 0.90000, 1.10000, 0.90000
  110,'UNKNOWN12~78', 115.0000,1,  67,  67,   1,1.02002466,  88.216797, 1.10000, 0.90000, 1.10000, 0.90000
  111,'UNKNOWN12~79', 115.0000,1,  67,  67,   1,1.01762128,  89.328568, 1.10000, 0.90000, 1.10000, 0.90000
  112,'UNKNOWN12~80', 115.0000,1,  67,  67,   1,1.01849699,  86.972426, 1.10000, 0.90000, 1.10000, 0.90000
  113,'UNKNOWN12~81', 115.0000,1,  67,  67,   1,1.01777327,  86.915981, 1.10000, 0.90000, 1.10000, 0.90000
  114,'UNKNOWN12~82', 115.0000,1,  67,  67,   1,1.01802468,  87.105027, 1.10000, 0.90000, 1.10000, 0.90000
  115,'KATTELVILLE ', 115.0000,1,  67,  67,   1,1.02073681,  86.408266, 1.10000, 0.90000, 1.10000, 0.90000
  116,'UNKNOWN12~83', 115.0000,2,  67,  67,   1,1.01999998,  88.141460, 1.10000, 0.90000, 1.10000, 0.90000
  117,'NORTH ENDI~1', 115.0000,1,  67,  67,   1,1.02067387,  87.361104, 1.10000, 0.90000, 1.10000, 0.90000
  118,'UNKNOWN12~84', 115.0000,1,  67,  67,   1,1.01858079,  87.048657, 1.10000, 0.90000, 1.10000, 0.90000
  119,'UNKNOWN12~85', 115.0000,1,  67,  67,   1,1.01836681,  87.138980, 1.10000, 0.90000, 1.10000, 0.90000
  120,'UNKNOWN12~86', 115.0000,1,  67,  67,   1,1.01860130,  87.357696, 1.10000, 0.90000, 1.10000, 0.90000
  121,'UNKNOWN12~87', 115.0000,1,  67,  67,   1,1.01981235,  87.184981, 1.10000, 0.90000, 1.10000, 0.90000
  122,'ROBBLE AVE  ', 115.0000,1,  67,  67,   1,1.02085817,  87.399968, 1.10000, 0.90000, 1.10000, 0.90000
  123,'CASTLE GAR~1', 115.0000,1,  67,  67,   1,1.01947844,  87.125470, 1.10000, 0.90000, 1.10000, 0.90000
  124,'UNKNOWN12~88', 115.0000,1,  67,  67,   1,1.01909745,  90.416125, 1.10000, 0.90000, 1.10000, 0.90000
  125,'UNKNOWN12~89', 115.0000,1,  69,  69,   1,1.01714671, 106.898321, 1.10000, 0.90000, 1.10000, 0.90000
  126,'UNKNOWN12~90', 115.0000,1,  69,  69,   1,1.01715016, 106.868971, 1.10000, 0.90000, 1.10000, 0.90000
  127,'UNKNOWN12~91', 115.0000,2,  70,  70,   1,1.01999998,  84.478546, 1.10000, 0.90000, 1.10000, 0.90000
  128,'UNKNOWN12~92', 115.0000,2,  66,  66,   1,1.01999998,  98.627351, 1.10000, 0.90000, 1.10000, 0.90000
  129,'UNKNOWN12~93', 115.0000,1,  66,  66,   1,1.00587583,  88.842641, 1.10000, 0.90000, 1.10000, 0.90000
  130,'UNKNOWN12~94', 115.0000,1,  66,  66,   1,1.00448167,  89.670432, 1.10000, 0.90000, 1.10000, 0.90000
  131,'UNKNOWN12~95', 115.0000,1,  67,  67,   1,1.01803005,  94.328266, 1.10000, 0.90000, 1.10000, 0.90000
  132,'UNKNOWN12~96', 230.0000,1,  67,  67,   1,1.02120531,  97.205845, 1.10000, 0.90000, 1.10000, 0.90000
  133,'UNKNOWN12~97', 115.0000,1,  67,  67,   1,1.01791525,  89.487014, 1.10000, 0.90000, 1.10000, 0.90000
  134,'ANGOLA      ', 115.0000,1,  65,  65,   1,1.01413250,  92.936267, 1.10000, 0.90000, 1.10000, 0.90000
  135,'SPRINGVILLE ', 115.0000,1,  65,  65,   1,1.01730311,  95.230090, 1.10000, 0.90000, 1.10000, 0.90000
  136,'COBBLE HILL ', 115.0000,1,  65,  65,   1,1.01714778,  95.293454, 1.10000, 0.90000, 1.10000, 0.90000
  137,'BIG TREE    ', 115.0000,1,  65,  65,   1,1.01972532,  95.358825, 1.10000, 0.90000, 1.10000, 0.90000
  138,'UNKNOWN12~98', 230.0000,2,  65,  65,   1,1.01954126, 101.684755, 1.10000, 0.90000, 1.10000, 0.90000
  139,'PERRY #162  ', 115.0000,1,  65,  65,   1,1.01802146,  98.007163, 1.10000, 0.90000, 1.10000, 0.90000
  140,'SOUTH PERRY ', 115.0000,1,  65,  65,   1,1.01806498,  98.023392, 1.10000, 0.90000, 1.10000, 0.90000
  141,'UNKNOWN12~99', 115.0000,1,  65,  65,   1,1.01347017,  96.377248, 1.10000, 0.90000, 1.10000, 0.90000
  142,'UNKNOWN1~100', 115.0000,1,  65,  65,   1,1.01269710,  96.062779, 1.10000, 0.90000, 1.10000, 0.90000
  143,'UNKNOWN1~101', 115.0000,1,  65,  65,   1,1.02384019,  95.970489, 1.10000, 0.90000, 1.10000, 0.90000
  144,'UNKNOWN1~102', 115.0000,1,  65,  65,   1,1.02123046,  95.619288, 1.10000, 0.90000, 1.10000, 0.90000
  145,'ERIE ST     ', 115.0000,1,  65,  65,   1,1.01984894,  95.458191, 1.10000, 0.90000, 1.10000, 0.90000
  146,'DEPEW       ', 115.0000,1,  65,  65,   1,1.01945531,  95.346333, 1.10000, 0.90000, 1.10000, 0.90000
  147,'UNKNOWN1~103', 115.0000,1,  67,  67,   1,1.01846826,  90.753516, 1.10000, 0.90000, 1.10000, 0.90000
  148,'UNKNOWN1~104', 115.0000,1,  67,  67,   1,1.01949215,  89.382635, 1.10000, 0.90000, 1.10000, 0.90000
  149,'UNKNOWN1~105', 115.0000,1,  67,  67,   1,1.01955450,  89.402211, 1.10000, 0.90000, 1.10000, 0.90000
  150,'UNKNOWN1~106', 115.0000,1,  67,  67,   1,1.01998818,  89.351770, 1.10000, 0.90000, 1.10000, 0.90000
  151,'UNKNOWN1~107', 115.0000,1,  67,  67,   1,1.01999676,  89.351777, 1.10000, 0.90000, 1.10000, 0.90000
  152,'UNKNOWN1~108', 115.0000,1,  67,  67,   1,1.01963055,  93.968732, 1.10000, 0.90000, 1.10000, 0.90000
  153,'LABRADOR    ', 115.0000,1,  67,  67,   1,1.01557934,  88.083096, 1.10000, 0.90000, 1.10000, 0.90000
  154,'CORTLAND    ', 115.0000,1,  67,  67,   1,1.01550817,  88.971137, 1.10000, 0.90000, 1.10000, 0.90000
  155,'UNKNOWN1~109', 115.0000,1,  67,  67,   1,1.01525307,  88.907159, 1.10000, 0.90000, 1.10000, 0.90000
  156,'STARR RD    ', 115.0000,1,  67,  67,   1,1.01477993,  88.754518, 1.10000, 0.90000, 1.10000, 0.90000
  157,'SUNY        ', 115.0000,1,  67,  67,   1,1.01476645,  88.746704, 1.10000, 0.90000, 1.10000, 0.90000
  158,'UNKNOWN1~110', 115.0000,1,  67,  67,   1,1.01491129,  88.777255, 1.10000, 0.90000, 1.10000, 0.90000
  159,'DAVIS RD    ', 115.0000,1,  65,  65,   1,1.02242386,  95.634130, 1.10000, 0.90000, 1.10000, 0.90000
  160,'UNKNOWN1~111', 115.0000,1,  65,  65,   1,1.01894927,  95.339237, 1.10000, 0.90000, 1.10000, 0.90000
  161,'UNKNOWN1~112', 115.0000,2,  65,  65,   1,1.01599932,  94.395263, 1.10000, 0.90000, 1.10000, 0.90000
  162,'UNKNOWN1~113', 115.0000,1,  65,  65,   1,1.01593137,  94.379615, 1.10000, 0.90000, 1.10000, 0.90000
  163,'UNKNOWN1~114', 115.0000,1,  65,  65,   1,1.01580489,  94.351810, 1.10000, 0.90000, 1.10000, 0.90000
  164,'UNKNOWN1~115', 115.0000,1,  65,  65,   1,1.01580048,  94.350744, 1.10000, 0.90000, 1.10000, 0.90000
  165,'UNKNOWN1~116', 115.0000,1,  65,  65,   1,1.01616716,  95.120124, 1.10000, 0.90000, 1.10000, 0.90000
  166,'UNKNOWN1~117', 115.0000,1,  65,  65,   1,1.01640344,  95.178481, 1.10000, 0.90000, 1.10000, 0.90000
  167,'PINE GROVE  ', 115.0000,1,  67,  67,   1,1.01225674,  93.113975, 1.10000, 0.90000, 1.10000, 0.90000
  168,'BRIDGEPORT  ', 115.0000,1,  69,  69,   1,1.01307106,  90.361408, 1.10000, 0.90000, 1.10000, 0.90000
  169,'UNKNOWN1~118', 115.0000,1,  67,  67,   1,1.01293635,  92.647391, 1.10000, 0.90000, 1.10000, 0.90000
  170,'UNKNOWN1~119', 115.0000,1,  67,  67,   1,1.01366937,  92.544111, 1.10000, 0.90000, 1.10000, 0.90000
  171,'TEAL        ', 115.0000,1,  67,  67,   1,1.01334715,  92.525526, 1.10000, 0.90000, 1.10000, 0.90000
  172,'HOPKINS     ', 115.0000,1,  67,  67,   1,1.01144624,  92.901631, 1.10000, 0.90000, 1.10000, 0.90000
  173,'WOODARD     ', 115.0000,1,  67,  67,   1,1.01012659,  93.525118, 1.10000, 0.90000, 1.10000, 0.90000
  174,'BELMONT     ', 115.0000,1,  67,  67,   1,1.00945365,  93.229603, 1.10000, 0.90000, 1.10000, 0.90000
  175,'UNKNOWN1~120', 115.0000,1,  67,  67,   1,1.00844371,  92.971586, 1.10000, 0.90000, 1.10000, 0.90000
  176,'UNKNOWN1~121', 115.0000,1,  67,  67,   1,1.00725198,  92.620186, 1.10000, 0.90000, 1.10000, 0.90000
  177,'UNKNOWN1~122', 115.0000,1,  67,  67,   1,1.00747526,  92.679506, 1.10000, 0.90000, 1.10000, 0.90000
  178,'UNKNOWN1~123', 115.0000,1,  67,  67,   1,1.00729561,  92.631968, 1.10000, 0.90000, 1.10000, 0.90000
  179,'UNKNOWN1~124', 115.0000,1,  67,  67,   1,1.00737751,  92.649262, 1.10000, 0.90000, 1.10000, 0.90000
  180,'MILTON      ', 115.0000,1,  67,  67,   1,1.00821555,  92.828814, 1.10000, 0.90000, 1.10000, 0.90000
  181,'UNKNOWN1~125', 115.0000,1,  67,  67,   1,1.00726116,  92.623526, 1.10000, 0.90000, 1.10000, 0.90000
  182,'ANHEUSER B~1', 115.0000,1,  67,  67,   1,1.00359821,  94.787439, 1.10000, 0.90000, 1.10000, 0.90000
  183,'LYSANDER    ', 115.0000,1,  67,  67,   1,1.00363421,  94.796195, 1.10000, 0.90000, 1.10000, 0.90000
  184,'G E         ', 115.0000,1,  67,  67,   1,1.01040971,  93.644434, 1.10000, 0.90000, 1.10000, 0.90000
  185,'SORRELL HILL', 115.0000,1,  67,  67,   1,1.00478911,  94.612163, 1.10000, 0.90000, 1.10000, 0.90000
  186,'UNKNOWN125~1', 115.0000,1,  69,  69,   1,1.02515566,  80.880177, 1.10000, 0.90000, 1.10000, 0.90000
  187,'UNKNOWN125~2', 115.0000,1,  69,  69,   1,1.02210212,  81.768259, 1.10000, 0.90000, 1.10000, 0.90000
  188,'UNKNOWN125~3', 115.0000,1,  69,  69,   1,0.98507106,  74.360044, 1.10000, 0.90000, 1.10000, 0.90000
  189,'UNKNOWN125~4', 115.0000,1,  69,  69,   1,0.99323100,  77.337351, 1.10000, 0.90000, 1.10000, 0.90000
  190,'UNKNOWN125~5', 115.0000,1,  68,  68,   1,1.00114596,  97.596969, 1.10000, 0.90000, 1.10000, 0.90000
  191,'UNKNOWN125~6', 115.0000,1,  68,  68,   1,0.98986721,  91.613245, 1.10000, 0.90000, 1.10000, 0.90000
  192,'UNKNOWN125~7', 115.0000,1,  68,  68,   1,0.99610126,  94.679133, 1.10000, 0.90000, 1.10000, 0.90000
  193,'UNKNOWN125~8', 115.0000,1,  68,  68,   1,0.99160117,  94.631410, 1.10000, 0.90000, 1.10000, 0.90000
  194,'UNKNOWN125~9', 115.0000,2,  70,  70,   1,1.01523542,  80.729455, 1.10000, 0.90000, 1.10000, 0.90000
  195,'UNKNOWN12~10', 115.0000,1,  70,  70,   1,1.01518774,  80.717543, 1.10000, 0.90000, 1.10000, 0.90000
  196,'RISER125055 ', 115.0000,1,  70,  70,   1,1.01441145,  80.628464, 1.10000, 0.90000, 1.10000, 0.90000
  197,'UNKNOWN12~11', 115.0000,1,  66,  66,   1,1.00963807,  92.690373, 1.10000, 0.90000, 1.10000, 0.90000
  198,'HOGAN RD    ', 115.0000,1,  66,  66,   1,0.99849927,  90.556875, 1.10000, 0.90000, 1.10000, 0.90000
  199,'UNKNOWN12~12', 115.0000,1,  66,  66,   1,1.00272274,  90.793240, 1.10000, 0.90000, 1.10000, 0.90000
  200,'STATION #52 ', 115.0000,1,  66,  66,   1,1.00172377,  91.513702, 1.10000, 0.90000, 1.10000, 0.90000
...
0 / END OF BUS DATA, BEGIN LOAD DATA
    1,'1 ',1,  66,  66,   115.188,     0.000,     0.000,     0.000,     0.000,     0.000,   1,1, 0
    2,'1 ',1,  70,  70,     1.539,     0.000,     0.000,     0.000,     0.000,     0.000,   1,1, 0
    3,'1 ',1,  70,  70,     3.422,     0.000,     0.000,     0.000,     0.000,     0.000,   1,1, 0
    4,'1 ',1,  68,  68,    74.047,     0.000,     0.000,     0.000,     0.000,     0.000,   1,1, 0
    5,'1 ',1,  70,  70,     3.422,     0.000,     0.000,     0.000,     0.000,     0.000,   1,1, 0
    6,'1 ',1,  70,  70,     3.422,     0.000,     0.000,     0.000,     0.000,     0.000,   1,1, 0
    7,'1 ',1,  70,  70,     6.844,     0.000,     0.000,     0.000,     0.000,     0.000,   1,1, 0
    8,'1 ',1,  70,  70,     6.844,     0.000,     0.000,     0.000,     0.000,     0.000,   1,1, 0
    9,'1 ',1,  71,  71,    36.728,     0.000,     0.000,     0.000,     0.000,     0.000,   1,1, 0
   10,'1 ',1,  68,  68,    14.809,     0.000,     0.000,     0.000,     0.000,     0.000,   1,1, 0
   11,'1 ',1,  70,  70,     6.844,     0.000,     0.000,     0.000,     0.000,     0.000,   1,1, 0
   12,'1 ',1,  70,  70,     3.422,     0.000,     0.000,     0.000,     0.000,     0.000,   1,1, 0
   13,'1 ',1,  70,  70,    13.687,     0.000,     0.000,     0.000,     0.000,     0.000,   1,1, 0
   14,'1 ',1,  69,  69,     4.154,     0.000,     0.000,     0.000,     0.000,     0.000,   1,1, 0
   15,'1 ',1,  69,  69,     4.154,     0.000,     0.000,     0.000,     0.000,     0.000,   1,1, 0
   16,'1 ',1,  69,  69,    10.385,     0.000,     0.000,     0.000,     0.000,     0.000,   1,1, 0
   17,'1 ',1,  75,  75,    44.519,     0.000,     0.000,     0.000,     0.000,     0.000,   1,1, 0
   18,'1 ',1,  75,  75,    41.736,     0.000,     0.000,     0.000,     0.000,     0.000,   1,1, 0
   19,'1 ',1,  75,  75,    77.351,     0.000,     0.000,     0.000,     0.000,     0.000,   1,1, 0
   19,'EX',0, 101, 101,  -135.769,     0.000,     0.000,     0.000,     0.000,     0.000,   1,1, 0
   20,'1 ',1,  69,  69,     8.308,     0.000,     0.000,     0.000,     0.000,     0.000,   1,1, 0
   21,'1 ',1,  69,  69,     8.308,     0.000,     0.000,     0.000,     0.000,     0.000,   1,1, 0
   22,'1 ',1,  70,  70,     1.539,     0.000,     0.000,     0.000,     0.000,     0.000,   1,1, 0
   23,'1 ',1,  69,  69,    10.385,     0.000,     0.000,     0.000,     0.000,     0.000,   1,1, 0
   24,'1 ',1,  67,  67,    20.893,     0.000,     0.000,     0.000,     0.000,     0.000,   1,1, 0
   25,'1 ',1,  69,  69,     2.077,     0.000,     0.000,     0.000,     0.000,     0.000,   1,1, 0
   27,'1 ',1,  67,  67,     8.357,     0.000,     0.000,     0.000,     0.000,     0.000,   1,1, 0
   28,'1 ',1,  69,  69,     2.077,     0.000,     0.000,     0.000,     0.000,     0.000,   1,1, 0
   29,'1 ',1,  67,  67,    16.715,     0.000,     0.000,     0.000,     0.000,     0.000,   1,1, 0
   30,'1 ',1,  67,  67,     8.357,     0.000,     0.000,     0.000,     0.000,     0.000,   1,1, 0
   31,'1 ',1,  70,  70,     3.422,     0.000,     0.000,     0.000,     0.000,     0.000,   1,1, 0
   32,'1 ',1,  70,  70,     3.422,     0.000,     0.000,     0.000,     0.000,     0.000,   1,1, 0
   33,'1 ',1,  65,  65,     5.050,     0.000,     0.000,     0.000,     0.000,     0.000,   1,1, 0
   34,'1 ',1,  67,  67,     8.357,     0.000,     0.000,     0.000,     0.000,     0.000,   1,1, 0
   35,'1 ',1,  68,  68,    35.239,     0.000,     0.000,     0.000,     0.000,     0.000,   1,1, 0
   36,'1 ',1,  68,  68,    35.239,     0.000,     0.000,     0.000,     0.000,     0.000,   1,1, 0
   37,'1 ',1,  65,  65,     7.575,     0.000,     0.000,     0.000,     0.000,     0.000,   1,1, 0
   38,'1 ',1,  65,  65,     5.050,     0.000,     0.000,     0.000,     0.000,     0.000,   1,1, 0
   40,'1 ',1,  69,  69,     2.077,     0.000,     0.000,     0.000,     0.000,     0.000,   1,1, 0
   41,'1 ',1,  65,  65,     5.050,     0.000,     0.000,     0.000,     0.000,     0.000,   1,1, 0
   42,'1 ',1,  65,  65,    17.675,     0.000,     0.000,     0.000,     0.000,     0.000,   1,1, 0
   43,'1 ',1,  65,  65,     5.050,     0.000,     0.000,     0.000,     0.000,     0.000,   1,1, 0
   44,'1 ',1,  65,  65,     2.525,     0.000,     0.000,     0.000,     0.000,     0.000,   1,1, 0
   45,'1 ',1,  65,  65,     7.575,     0.000,     0.000,     0.000,     0.000,     0.000,   1,1, 0
   46,'1 ',1,  65,  65,     5.050,     0.000,     0.000,     0.000,     0.000,     0.000,   1,1, 0
   47,'1 ',1,  65,  65,     2.525,     0.000,     0.000,     0.000,     0.000,     0.000,   1,1, 0
   48,'1 ',1,  65,  65,    10.100,     0.000,     0.000,     0.000,     0.000,     0.000,   1,1, 0
   49,'1 ',1,  69,  69,     4.154,     0.000,     0.000,     0.000,     0.000,     0.000,   1,1, 0
   50,'1 ',1,  69,  69,     4.154,     0.000,     0.000,     0.000,     0.000,     0.000,   1,1, 0
   51,'1 ',1,  67,  67,     4.179,     0.000,     0.000,     0.000,     0.000,     0.000,   1,1, 0
   52,'1 ',1,  67,  67,     4.179,     0.000,     0.000,     0.000,     0.000,     0.000,   1,1, 0
   53,'1 ',1,  67,  67,     8.357,     0.000,     0.000,     0.000,     0.000,     0.000,   1,1, 0
   55,'1 ',1,  67,  67,    12.536,     0.000,     0.000,     0.000,     0.000,     0.000,   1,1, 0
   56,'1 ',1,  67,  67,     8.357,     0.000,     0.000,     0.000,     0.000,     0.000,   1,1, 0
   57,'1 ',1,  67,  67,     8.357,     0.000,     0.000,     0.000,     0.000,     0.000,   1,1, 0
   58,'1 ',1,  67,  67,     6.268,     0.000,     0.000,     0.000,     0.000,     0.000,   1,1, 0
   59,'1 ',1,  69,  69,    14.539,     0.000,     0.000,     0.000,     0.000,     0.000,   1,1, 0
   60,'1 ',1,  69,  69,     1.868,     0.000,     0.000,     0.000,     0.000,     0.000,   1,1, 0
   61,'1 ',1,  67,  67,    12.536,     0.000,     0.000,     0.000,     0.000,     0.000,   1,1, 0
   64,'1 ',1,  69,  69,     2.077,     0.000,     0.000,     0.000,     0.000,     0.000,   1,1, 0
   65,'1 ',1,  65,  65,     5.050,     0.000,     0.000,     0.000,     0.000,     0.000,   1,1, 0
   66,'1 ',1,  65,  65,     5.050,     0.000,     0.000,     0.000,     0.000,     0.000,   1,1, 0
   67,'1 ',1,  65,  65,     2.525,     0.000,     0.000,     0.000,     0.000,     0.000,   1,1, 0
   68,'1 ',1,  65,  65,     5.050,     0.000,     0.000,     0.000,     0.000,     0.000,   1,1, 0
   69,'1 ',1,  65,  65,    12.625,     0.000,     0.000,     0.000,     0.000,     0.000,   1,1, 0
   70,'1 ',1,  65,  65,     5.050,     0.000,     0.000,     0.000,     0.000,     0.000,   1,1, 0
   71,'1 ',1,  65,  65,     7.575,     0.000,     0.000,     0.000,     0.000,     0.000,   1,1, 0
   72,'1 ',1,  65,  65,     2.525,     0.000,     0.000,     0.000,     0.000,     0.000,   1,1, 0
   73,'1 ',1,  65,  65,     5.050,     0.000,     0.000,     0.000,     0.000,     0.000,   1,1, 0
   74,'1 ',1,  65,  65,    10.100,     0.000,     0.000,     0.000,     0.000,     0.000,   1,1, 0
   75,'1 ',1,  65,  65,     2.525,     0.000,     0.000,     0.000,     0.000,     0.000,   1,1, 0
   76,'1 ',1,  65,  65,     5.050,     0.000,     0.000,     0.000,     0.000,     0.000,   1,1, 0
   77,'1 ',1,  65,  65,    12.625,     0.000,     0.000,     0.000,     0.000,     0.000,   1,1, 0
   78,'1 ',1,  65,  65,     5.050,     0.000,     0.000,     0.000,     0.000,     0.000,   1,1, 0
   80,'1 ',1,  69,  69,     4.154,     0.000,     0.000,     0.000,     0.000,     0.000,   1,1, 0
   81,'1 ',1,  67,  67,    20.893,     0.000,     0.000,     0.000,     0.000,     0.000,   1,1, 0
   82,'1 ',1,  69,  69,     2.077,     0.000,     0.000,     0.000,     0.000,     0.000,   1,1, 0
   83,'1 ',1,  69,  69,     6.231,     0.000,     0.000,     0.000,     0.000,     0.000,   1,1, 0
   84,'1 ',1,  70,  70,     3.422,     0.000,     0.000,     0.000,     0.000,     0.000,   1,1, 0
   85,'1 ',1,  65,  65,     2.525,     0.000,     0.000,     0.000,     0.000,     0.000,   1,1, 0
   86,'1 ',1,  65,  65,     5.050,     0.000,     0.000,     0.000,     0.000,     0.000,   1,1, 0
   87,'1 ',1,  65,  65,     7.575,     0.000,     0.000,     0.000,     0.000,     0.000,   1,1, 0
   88,'1 ',1,  65,  65,     5.050,     0.000,     0.000,     0.000,     0.000,     0.000,   1,1, 0
   89,'1 ',1,  65,  65,     2.525,     0.000,     0.000,     0.000,     0.000,     0.000,   1,1, 0
   90,'1 ',1,  65,  65,     5.050,     0.000,     0.000,     0.000,     0.000,     0.000,   1,1, 0
   91,'1 ',1,  65,  65,     5.050,     0.000,     0.000,     0.000,     0.000,     0.000,   1,1, 0
   92,'1 ',1,  66,  66,    14.398,     0.000,     0.000,     0.000,     0.000,     0.000,   1,1, 0
   93,'1 ',1,  66,  66,    14.398,     0.000,     0.000,     0.000,     0.000,     0.000,   1,1, 0
   94,'1 ',1,  66,  66,    14.398,     0.000,     0.000,     0.000,     0.000,     0.000,   1,1, 0
   95,'1 ',1,  66,  66,     7.199,     0.000,     0.000,     0.000,     0.000,     0.000,   1,1, 0
   96,'1 ',1,  66,  66,     7.199,     0.000,     0.000,     0.000,     0.000,     0.000,   1,1, 0
   97,'1 ',1,  66,  66,    14.398,     0.000,     0.000,     0.000,     0.000,     0.000,   1,1, 0
   98,'1 ',1,  66,  66,    14.398,     0.000,     0.000,     0.000,     0.000,     0.000,   1,1, 0
   99,'1 ',1,  66,  66,    14.398,     0.000,     0.000,     0.000,     0.000,     0.000,   1,1, 0
  100,'1 ',1,  66,  66,     7.199,     0.000,     0.000,     0.000,     0.000,     0.000,   1,1, 0
  101,'1 ',1,  65,  65,     5.050,     0.000,     0.000,     0.000,     0.000,     0.000,   1,1, 0
  102,'1 ',1,  65,  65,     5.050,     0.000,     0.000,     0.000,     0.000,     0.000,   1,1, 0
  103,'1 ',1,  65,  65,     2.525,     0.000,     0.000,     0.000,     0.000,     0.000,   1,1, 0
  104,'1 ',1,  65,  65,     5.050,     0.000,     0.000,     0.000,     0.000,     0.000,   1,1, 0
  105,'1 ',1,  65,  65,    20.200,     0.000,     0.000,     0.000,     0.000,     0.000,   1,1, 0
  106,'1 ',1,  65,  65,     5.050,     0.000,     0.000,     0.000,     0.000,     0.000,   1,1, 0
  107,'1 ',1,  65,  65,    12.625,     0.000,     0.000,     0.000,     0.000,     0.000,   1,1, 0
  108,'1 ',1,  67,  67,     8.357,     0.000,     0.000,     0.000,     0.000,     0.000,   1,1, 0
  109,'1 ',1,  67,  67,     8.357,     0.000,     0.000,     0.000,     0.000,     0.000,   1,1, 0
  110,'1 ',1,  67,  67,    12.536,     0.000,     0.000,     0.000,     0.000,     0.000,   1,1, 0
  111,'1 ',1,  67,  67,     8.357,     0.000,     0.000,     0.000,     0.000,     0.000,   1,1, 0
  112,'1 ',1,  67,  67,     8.357,     0.000,     0.000,     0.000,     0.000,     0.000,   1,1, 0
  113,'1 ',1,  67,  67,     8.357,     0.000,     0.000,     0.000,     0.000,     0.000,   1,1, 0
  114,'1 ',1,  67,  67,     8.357,     0.000,     0.000,     0.000,     0.000,     0.000,   1,1, 0
  115,'1 ',1,  67,  67,     8.357,     0.000,     0.000,     0.000,     0.000,     0.000,   1,1, 0
  116,'1 ',1,  67,  67,     8.357,     0.000,     0.000,     0.000,     0.000,     0.000,   1,1, 0
  117,'1 ',1,  67,  67,    12.536,     0.000,     0.000,     0.000,     0.000,     0.000,   1,1, 0
  118,'1 ',1,  67,  67,     8.357,     0.000,     0.000,     0.000,     0.000,     0.000,   1,1, 0
  119,'1 ',1,  67,  67,     8.357,     0.000,     0.000,     0.000,     0.000,     0.000,   1,1, 0
  120,'1 ',1,  67,  67,     8.357,     0.000,     0.000,     0.000,     0.000,     0.000,   1,1, 0
  121,'1 ',1,  67,  67,     8.357,     0.000,     0.000,     0.000,     0.000,     0.000,   1,1, 0
  122,'1 ',1,  67,  67,     8.357,     0.000,     0.000,     0.000,     0.000,     0.000,   1,1, 0
  123,'1 ',1,  67,  67,     8.357,     0.000,     0.000,     0.000,     0.000,     0.000,   1,1, 0
  124,'1 ',1,  67,  67,    25.072,     0.000,     0.000,     0.000,     0.000,     0.000,   1,1, 0
  125,'1 ',1,  69,  69,     2.077,     0.000,     0.000,     0.000,     0.000,     0.000,   1,1, 0
  126,'1 ',1,  69,  69,     2.077,     0.000,     0.000,     0.000,     0.000,     0.000,   1,1, 0
  127,'1 ',1,  70,  70,    34.218,     0.000,     0.000,     0.000,     0.000,     0.000,   1,1, 0
  128,'1 ',1,  66,  66,    43.195,     0.000,     0.000,     0.000,     0.000,     0.000,   1,1, 0
  129,'1 ',1,  66,  66,    21.598,     0.000,     0.000,     0.000,     0.000,     0.000,   1,1, 0
  130,'1 ',1,  66,  66,     7.199,     0.000,     0.000,     0.000,     0.000,     0.000,   1,1, 0
  131,'1 ',1,  67,  67,    25.072,     0.000,     0.000,     0.000,     0.000,     0.000,   1,1, 0
  133,'1 ',1,  67,  67,    12.536,     0.000,     0.000,     0.000,     0.000,     0.000,   1,1, 0
  134,'1 ',1,  65,  65,    12.625,     0.000,     0.000,     0.000,     0.000,     0.000,   1,1, 0
  135,'1 ',1,  65,  65,     5.050,     0.000,     0.000,     0.000,     0.000,     0.000,   1,1, 0
  136,'1 ',1,  65,  65,     5.050,     0.000,     0.000,     0.000,     0.000,     0.000,   1,1, 0
  137,'1 ',1,  65,  65,     5.050,     0.000,     0.000,     0.000,     0.000,     0.000,   1,1, 0
  139,'1 ',1,  65,  65,     7.575,     0.000,     0.000,     0.000,     0.000,     0.000,   1,1, 0
  140,'1 ',1,  65,  65,    10.759,     0.000,     0.000,     0.000,     0.000,     0.000,   1,1, 0
  141,'1 ',1,  65,  65,     5.050,     0.000,     0.000,     0.000,     0.000,     0.000,   1,1, 0
  142,'1 ',1,  65,  65,     7.575,     0.000,     0.000,     0.000,     0.000,     0.000,   1,1, 0
  143,'1 ',1,  65,  65,     5.050,     0.000,     0.000,     0.000,     0.000,     0.000,   1,1, 0
  144,'1 ',1,  65,  65,     5.050,     0.000,     0.000,     0.000,     0.000,     0.000,   1,1, 0
  145,'1 ',1,  65,  65,     7.575,     0.000,     0.000,     0.000,     0.000,     0.000,   1,1, 0
  146,'1 ',1,  65,  65,     2.525,     0.000,     0.000,     0.000,     0.000,     0.000,   1,1, 0
  147,'1 ',1,  67,  67,     4.179,     0.000,     0.000,     0.000,     0.000,     0.000,   1,1, 0
  148,'1 ',1,  67,  67,     4.179,     0.000,     0.000,     0.000,     0.000,     0.000,   1,1, 0
  149,'1 ',1,  67,  67,    12.536,     0.000,     0.000,     0.000,     0.000,     0.000,   1,1, 0
  150,'1 ',1,  67,  67,     8.357,     0.000,     0.000,     0.000,     0.000,     0.000,   1,1, 0
  151,'1 ',1,  67,  67,     4.179,     0.000,     0.000,     0.000,     0.000,     0.000,   1,1, 0
  152,'1 ',1,  67,  67,     8.357,     0.000,     0.000,     0.000,     0.000,     0.000,   1,1, 0
  153,'1 ',1,  67,  67,     4.179,     0.000,     0.000,     0.000,     0.000,     0.000,   1,1, 0
  154,'1 ',1,  67,  67,    12.536,     0.000,     0.000,     0.000,     0.000,     0.000,   1,1, 0
  155,'1 ',1,  67,  67,     4.179,     0.000,     0.000,     0.000,     0.000,     0.000,   1,1, 0
  156,'1 ',1,  67,  67,     8.357,     0.000,     0.000,     0.000,     0.000,     0.000,   1,1, 0
  157,'1 ',1,  67,  67,     4.179,     0.000,     0.000,     0.000,     0.000,     0.000,   1,1, 0
  158,'1 ',1,  67,  67,     4.179,     0.000,     0.000,     0.000,     0.000,     0.000,   1,1, 0
  159,'1 ',1,  65,  65,     5.050,     0.000,     0.000,     0.000,     0.000,     0.000,   1,1, 0
  160,'1 ',1,  65,  65,     2.525,     0.000,     0.000,     0.000,     0.000,     0.000,   1,1, 0
  161,'1 ',1,  65,  65,     5.050,     0.000,     0.000,     0.000,     0.000,     0.000,   1,1, 0
  162,'1 ',1,  65,  65,    10.100,     0.000,     0.000,     0.000,     0.000,     0.000,   1,1, 0
  163,'1 ',1,  65,  65,    12.625,     0.000,     0.000,     0.000,     0.000,     0.000,   1,1, 0
  164,'1 ',1,  65,  65,     2.525,     0.000,     0.000,     0.000,     0.000,     0.000,   1,1, 0
  165,'1 ',1,  65,  65,     2.525,     0.000,     0.000,     0.000,     0.000,     0.000,   1,1, 0
  166,'1 ',1,  65,  65,     2.525,     0.000,     0.000,     0.000,     0.000,     0.000,   1,1, 0
  167,'1 ',1,  67,  67,     8.357,     0.000,     0.000,     0.000,     0.000,     0.000,   1,1, 0
  168,'1 ',1,  69,  69,     2.077,     0.000,     0.000,     0.000,     0.000,     0.000,   1,1, 0
  169,'1 ',1,  67,  67,     8.357,     0.000,     0.000,     0.000,     0.000,     0.000,   1,1, 0
  170,'1 ',1,  67,  67,     8.357,     0.000,     0.000,     0.000,     0.000,     0.000,   1,1, 0
  171,'1 ',1,  67,  67,    33.429,     0.000,     0.000,     0.000,     0.000,     0.000,   1,1, 0
  172,'1 ',1,  67,  67,     8.357,     0.000,     0.000,     0.000,     0.000,     0.000,   1,1, 0
  173,'1 ',1,  67,  67,    12.536,     0.000,     0.000,     0.000,     0.000,     0.000,   1,1, 0
  174,'1 ',1,  67,  67,     8.357,     0.000,     0.000,     0.000,     0.000,     0.000,   1,1, 0
  175,'1 ',1,  67,  67,     8.357,     0.000,     0.000,     0.000,     0.000,     0.000,   1,1, 0
  176,'1 ',1,  67,  67,     8.357,     0.000,     0.000,     0.000,     0.000,     0.000,   1,1, 0
  177,'1 ',1,  67,  67,     4.179,     0.000,     0.000,     0.000,     0.000,     0.000,   1,1, 0
  178,'1 ',1,  67,  67,    12.536,     0.000,     0.000,     0.000,     0.000,     0.000,   1,1, 0
  179,'1 ',1,  67,  67,     8.357,     0.000,     0.000,     0.000,     0.000,     0.000,   1,1, 0
  180,'1 ',1,  67,  67,     8.357,     0.000,     0.000,     0.000,     0.000,     0.000,   1,1, 0
  181,'1 ',1,  67,  67,     8.357,     0.000,     0.000,     0.000,     0.000,     0.000,   1,1, 0
  182,'1 ',1,  67,  67,     8.357,     0.000,     0.000,     0.000,     0.000,     0.000,   1,1, 0
  183,'1 ',1,  67,  67,     8.357,     0.000,     0.000,     0.000,     0.000,     0.000,   1,1, 0
  184,'1 ',1,  67,  67,     8.357,     0.000,     0.000,     0.000,     0.000,     0.000,   1,1, 0
  185,'1 ',1,  67,  67,     8.357,     0.000,     0.000,     0.000,     0.000,     0.000,   1,1, 0
  186,'1 ',1,  69,  69,     6.231,     0.000,     0.000,     0.000,     0.000,     0.000,   1,1, 0
  187,'1 ',1,  69,  69,     4.154,     0.000,     0.000,     0.000,     0.000,     0.000,   1,1, 0
  188,'1 ',1,  69,  69,     4.154,     0.000,     0.000,     0.000,     0.000,     0.000,   1,1, 0
  189,'1 ',1,  69,  69,     2.077,     0.000,     0.000,     0.000,     0.000,     0.000,   1,1, 0
  190,'1 ',1,  68,  68,    29.619,     0.000,     0.000,     0.000,     0.000,     0.000,   1,1, 0
  191,'1 ',1,  68,  68,    29.619,     0.000,     0.000,     0.000,     0.000,     0.000,   1,1, 0
  192,'1 ',1,  68,  68,    44.428,     0.000,     0.000,     0.000,     0.000,     0.000,   1,1, 0
  193,'1 ',1,  68,  68,    59.238,     0.000,     0.000,     0.000,     0.000,     0.000,   1,1, 0
  194,'1 ',1,  70,  70,    20.531,     0.000,     0.000,     0.000,     0.000,     0.000,   1,1, 0
  195,'1 ',1,  70,  70,     6.844,     0.000,     0.000,     0.000,     0.000,     0.000,   1,1, 0
  196,'1 ',1,  70,  70,     6.844,     0.000,     0.000,     0.000,     0.000,     0.000,   1,1, 0
  197,'1 ',1,  66,  66,    14.398,     0.000,     0.000,     0.000,     0.000,     0.000,   1,1, 0
  198,'1 ',1,  66,  66,    14.398,     0.000,     0.000,     0.000,     0.000,     0.000,   1,1, 0
  199,'1 ',1,  66,  66,    14.398,     0.000,     0.000,     0.000,     0.000,     0.000,   1,1, 0
  200,'1 ',1,  66,  66,    21.598,     0.000,     0.000,     0.000,     0.000,     0.000,   1,1, 0
  201,'1 ',1,  66,  66,    14.398,     0.000,     0.000,     0.000,     0.000,     0.000,   1,1, 0
  202,'1 ',1,  67,  67,     8.357,     0.000,     0.000,     0.000,     0.000,     0.000,   1,1, 0
  203,'1 ',1,  69,  69,     4.154,     0.000,     0.000,     0.000,     0.000,     0.000,   1,1, 0
  204,'1 ',1,  69,  69,     6.231,     0.000,     0.000,     0.000,     0.000,     0.000,   1,1, 0
  205,'1 ',1,  69,  69,     8.308,     0.000,     0.000,     0.000,     0.000,     0.000,   1,1, 0
  206,'1 ',1,  69,  69,     4.154,     0.000,     0.000,     0.000,     0.000,     0.000,   1,1, 0
  207,'1 ',1,  67,  67,     4.179,     0.000,     0.000,     0.000,     0.000,     0.000,   1,1, 0
...
0 / END OF LOAD DATA, BEGIN FIXED SHUNT DATA
0 / END OF FIXED SHUNT DATA, BEGIN GENERATOR DATA
    6,'1 ',     2.745,    -0.209,     1.800,    -1.500,1.02000,    0,   100.000,   0.00000,   1.00000,   0.00000,   0.00000,1.00000,1,  100.0,     2.800,     1.000,   1,1.0000,   0,1.0000,   0,1.0000,   0,1.0000,0, 1.0000
    6,'2 ',     2.745,    -0.209,     1.800,    -1.500,1.02000,    0,   100.000,   0.00000,   1.00000,   0.00000,   0.00000,1.00000,1,  100.0,     2.800,     1.000,   1,1.0000,   0,1.0000,   0,1.0000,   0,1.0000,0, 1.0000
    6,'3 ',     2.941,    -0.209,     2.000,    -1.700,1.02000,    0,   100.000,   0.00000,   1.00000,   0.00000,   0.00000,1.00000,1,  100.0,     3.000,     1.000,   1,1.0000,   0,1.0000,   0,1.0000,   0,1.0000,0, 1.0000
    6,'4 ',     2.941,    -0.209,     2.000,    -1.700,1.02000,    0,   100.000,   0.00000,   1.00000,   0.00000,   0.00000,1.00000,1,  100.0,     3.000,     1.000,   1,1.0000,   0,1.0000,   0,1.0000,   0,1.0000,0, 1.0000
   15,'1 ',     7.842,    -1.256,     5.200,    -4.400,1.02000,    0,   100.000,   0.00000,   1.00000,   0.00000,   0.00000,1.00000,1,  100.0,     8.000,     7.000,   1,1.0000,   0,1.0000,   0,1.0000,   0,1.0000,0, 1.0000
   15,'2 ',     7.842,    -1.256,     5.200,    -4.400,1.02000,    0,   100.000,   0.00000,   1.00000,   0.00000,   0.00000,1.00000,1,  100.0,     8.000,     7.000,   1,1.0000,   0,1.0000,   0,1.0000,   0,1.0000,0, 1.0000
   17,'1 ',     0.018,    -9.900,    11.700,    -9.900,1.01000,    0,   100.000,   0.00000,   1.00000,   0.00000,   0.00000,1.00000,1,  100.0,    18.000,    10.500,   1,1.0000,   0,1.0000,   0,1.0000,   0,1.0000,0, 1.0000
   17,'10',     0.041,   -23.000,    27.200,   -23.000,1.01000,    0,   100.000,   0.00000,   1.00000,   0.00000,   0.00000,1.00000,1,  100.0,    41.800,    30.000,   1,1.0000,   0,1.0000,   0,1.0000,   0,1.0000,0, 1.0000
   17,'11',    13.354,   -23.000,    27.200,   -23.000,1.01000,    0,   100.000,   0.00000,   1.00000,   0.00000,   0.00000,1.00000,1,  100.0,    41.800,    30.000,   1,1.0000,   0,1.0000,   0,1.0000,   0,1.0000,0, 1.0000
   17,'12',   139.619,     0.000,     0.000,     0.000,1.01000,    0,   100.000,   0.00000,   1.00000,   0.00000,   0.00000,1.00000,1,  100.0,   188.000,    15.000,   1,1.0000,   0,1.0000,   0,1.0000,   0,1.0000,0, 1.0000
   17,'13',   186.809,     0.000,     0.000,     0.000,1.01000,    0,   100.000,   0.00000,   1.00000,   0.00000,   0.00000,1.00000,1,  100.0,   188.000,    15.000,   1,1.0000,   0,1.0000,   0,1.0000,   0,1.0000,0, 1.0000
   17,'2 ',    17.886,    -9.900,    11.700,    -9.900,1.01000,    0,   100.000,   0.00000,   1.00000,   0.00000,   0.00000,1.00000,1,  100.0,    18.000,    11.400,   1,1.0000,   0,1.0000,   0,1.0000,   0,1.0000,0, 1.0000
   17,'3 ',    17.886,    -9.900,    11.700,    -9.900,1.01000,    0,   100.000,   0.00000,   1.00000,   0.00000,   0.00000,1.00000,1,  100.0,    18.000,    11.000,   1,1.0000,   0,1.0000,   0,1.0000,   0,1.0000,0, 1.0000
   17,'4 ',    17.886,    -9.900,    11.700,    -9.900,1.01000,    0,   100.000,   0.00000,   1.00000,   0.00000,   0.00000,1.00000,1,  100.0,    18.000,    11.200,   1,1.0000,   0,1.0000,   0,1.0000,   0,1.0000,0, 1.0000
   17,'5 ',    17.886,    -9.900,    11.700,    -9.900,1.01000,    0,   100.000,   0.00000,   1.00000,   0.00000,   0.00000,1.00000,1,  100.0,    18.000,    11.400,   1,1.0000,   0,1.0000,   0,1.0000,   0,1.0000,0, 1.0000
   17,'6 ',    17.886,    -9.900,    11.700,    -9.900,1.01000,    0,   100.000,   0.00000,   1.00000,   0.00000,   0.00000,1.00000,1,  100.0,    18.000,    10.700,   1,1.0000,   0,1.0000,   0,1.0000,   0,1.0000,0, 1.0000
   17,'7 ',    17.886,    -9.900,    11.700,    -9.900,1.01000,    0,   100.000,   0.00000,   1.00000,   0.00000,   0.00000,1.00000,1,  100.0,    18.000,     9.000,   1,1.0000,   0,1.0000,   0,1.0000,   0,1.0000,0, 1.0000
   17,'8 ',    41.535,   -23.000,    27.200,   -23.000,1.01000,    0,   100.000,   0.00000,   1.00000,   0.00000,   0.00000,1.00000,1,  100.0,    41.800,    29.800,   1,1.0000,   0,1.0000,   0,1.0000,   0,1.0000,0, 1.0000
   17,'9 ',    37.237,     0.000,    27.200,   -23.000,1.01000,    0,   100.000,   0.00000,   1.00000,   0.00000,   0.00000,1.00000,0,  100.0,    41.800,    30.000,   1,1.0000,   0,1.0000,   0,1.0000,   0,1.0000,0, 1.0000
   18,'1 ',    15.899,    -8.800,    10.400,    -8.800,1.01000,    0,   100.000,   0.00000,   1.00000,   0.00000,   0.00000,1.00000,1,  100.0,    16.000,    10.000,   1,1.0000,   0,1.0000,   0,1.0000,   0,1.0000,0, 1.0000
   18,'2 ',    52.664,     0.000,     0.000,     0.000,1.01000,    0,   100.000,   0.00000,   1.00000,   0.00000,   0.00000,1.00000,1,  100.0,    53.000,    37.000,   1,1.0000,   0,1.0000,   0,1.0000,   0,1.0000,0, 1.0000
   18,'3 ',    52.664,     0.000,     0.000,     0.000,1.01000,    0,   100.000,   0.00000,   1.00000,   0.00000,   0.00000,1.00000,1,  100.0,    53.000,    37.000,   1,1.0000,   0,1.0000,   0,1.0000,   0,1.0000,0, 1.0000
   18,'4 ',    54.651,   -30.300,    35.800,   -30.300,1.01000,    0,   100.000,   0.00000,   1.00000,   0.00000,   0.00000,1.00000,1,  100.0,    55.000,    40.000,   1,1.0000,   0,1.0000,   0,1.0000,   0,1.0000,0, 1.0000
   18,'5 ',    48.996,     0.000,    35.800,   -30.300,1.01000,    0,   100.000,   0.00000,   1.00000,   0.00000,   0.00000,1.00000,0,  100.0,    55.000,    44.100,   1,1.0000,   0,1.0000,   0,1.0000,   0,1.0000,0, 1.0000
   19,'1 ',    15.899,    -8.800,    10.400,    -8.800,1.02000,    0,   100.000,   0.00000,   1.00000,   0.00000,   0.00000,1.00000,1,  100.0,    16.000,    10.600,   1,1.0000,   0,1.0000,   0,1.0000,   0,1.0000,0, 1.0000
   19,'2 ',   344.752,     0.000,   251.600,  -212.900,1.02000,    0,   100.000,   0.00000,   1.00000,   0.00000,   0.00000,1.00000,0,  100.0,   387.000,    40.000,   1,1.0000,   0,1.0000,   0,1.0000,   0,1.0000,0, 1.0000
   19,'3 ',   384.548,     0.000,     0.000,     0.000,1.02000,    0,   100.000,   0.00000,   1.00000,   0.00000,   0.00000,1.00000,1,  100.0,   387.000,    30.000,   1,1.0000,   0,1.0000,   0,1.0000,   0,1.0000,0, 1.0000
   19,'4 ',   387.000,   -25.354,   251.600,  -212.900,1.02000,    0,   100.000,   0.00000,   1.00000,   0.00000,   0.00000,1.00000,1,  100.0,   387.000,    40.000,   1,1.0000,   0,1.0000,   0,1.0000,   0,1.0000,0, 1.0000
   19,'5 ',   387.000,     0.000,     0.000,     0.000,1.02000,    0,   100.000,   0.00000,   1.00000,   0.00000,   0.00000,1.00000,1,  100.0,   387.000,    40.000,   1,1.0000,   0,1.0000,   0,1.0000,   0,1.0000,0, 1.0000
   19,'x ',   130.000,   -25.354,  9900.000, -9900.000,1.02000,    0,   100.000,   0.00000,   1.00000,   0.00000,   0.00000,1.00000,1,  100.0,   130.000,   130.000,   1,1.0000,   0,1.0000,   0,1.0000,   0,1.0000,0, 1.0000
   21,'1 ',    10.782,     7.200,     7.200,    -6.100,1.02000,    0,   100.000,   0.00000,   1.00000,   0.00000,   0.00000,1.00000,1,  100.0,    11.000,     0.200,   1,1.0000,   0,1.0000,   0,1.0000,   0,1.0000,0, 1.0000
   21,'2 ',    11.763,     7.800,     7.800,    -6.600,1.02000,    0,   100.000,   0.00000,   1.00000,   0.00000,   0.00000,1.00000,1,  100.0,    12.000,     0.200,   1,1.0000,   0,1.0000,   0,1.0000,   0,1.0000,0, 1.0000
   21,'3 ',    12.743,     8.500,     8.500,    -7.200,1.02000,    0,   100.000,   0.00000,   1.00000,   0.00000,   0.00000,1.00000,1,  100.0,    13.000,     0.200,   1,1.0000,   0,1.0000,   0,1.0000,   0,1.0000,0, 1.0000
   24,'1 ',     8.822,     4.911,     5.900,    -5.000,1.02000,    0,   100.000,   0.00000,   1.00000,   0.00000,   0.00000,1.00000,1,  100.0,     9.000,     3.000,   1,1.0000,   0,1.0000,   0,1.0000,   0,1.0000,0, 1.0000
   24,'2 ',     8.822,     4.911,     5.900,    -5.000,1.02000,    0,   100.000,   0.00000,   1.00000,   0.00000,   0.00000,1.00000,1,  100.0,     9.000,     3.000,   1,1.0000,   0,1.0000,   0,1.0000,   0,1.0000,0, 1.0000
   24,'3 ',     8.822,     4.911,     5.900,    -5.000,1.02000,    0,   100.000,   0.00000,   1.00000,   0.00000,   0.00000,1.00000,1,  100.0,     9.000,     3.000,   1,1.0000,   0,1.0000,   0,1.0000,   0,1.0000,0, 1.0000
   24,'4 ',     8.822,     4.911,     5.900,    -5.000,1.02000,    0,   100.000,   0.00000,   1.00000,   0.00000,   0.00000,1.00000,1,  100.0,     9.000,     3.000,   1,1.0000,   0,1.0000,   0,1.0000,   0,1.0000,0, 1.0000
   26,'C1',   595.000,    37.844,   446.250,  -416.500,1.02000,    0,   100.000,   0.00000,   1.00000,   0.00000,   0.00000,1.00000,1,  100.0,   595.000,   320.000,   1,1.0000,   0,1.0000,   0,1.0000,   0,1.0000,0, 1.0000
   26,'C2',   650.000,    37.844,   487.500,  -455.000,1.02000,    0,   100.000,   0.00000,   1.00000,   0.00000,   0.00000,1.00000,1,  100.0,   650.000,   320.000,   1,1.0000,   0,1.0000,   0,1.0000,   0,1.0000,0, 1.0000
   27,'C1',   121.823,    44.637,    91.950,   -85.820,1.02000,    0,   100.000,   0.00000,   1.00000,   0.00000,   0.00000,1.00000,1,  100.0,   122.600,    42.000,   1,1.0000,   0,1.0000,   0,1.0000,   0,1.0000,0, 1.0000
   28,'C1',    48.098,     0.000,    47.175,   -44.030,1.02000,    0,   100.000,   0.00000,   1.00000,   0.00000,   0.00000,1.00000,0,  100.0,    62.900,    35.000,   1,1.0000,   0,1.0000,   0,1.0000,   0,1.0000,0, 1.0000
   29,'1 ',   111.290,    -8.325,    72.800,   -61.600,1.02000,    0,   100.000,   0.00000,   1.00000,   0.00000,   0.00000,1.00000,1,  100.0,   112.000,    32.000,   1,1.0000,   0,1.0000,   0,1.0000,   0,1.0000,0, 1.0000
   30,'1 ',     4.074,    -1.781,     2.700,    -2.300,1.02000,    0,   100.000,   0.00000,   1.00000,   0.00000,   0.00000,1.00000,1,  100.0,     4.100,     0.000,   1,1.0000,   0,1.0000,   0,1.0000,   0,1.0000,1, 1.0000
   30,'2 ',    55.049,    -1.781,    36.000,   -30.500,1.02000,    0,   100.000,   0.00000,   1.00000,   0.00000,   0.00000,1.00000,1,  100.0,    55.400,     0.000,   1,1.0000,   0,1.0000,   0,1.0000,   0,1.0000,1, 1.0000
   31,'1 ',     0.980,    -0.600,     0.700,    -0.600,1.02000,    0,   100.000,   0.00000,   1.00000,   0.00000,   0.00000,1.00000,1,  100.0,     1.000,     0.200,   1,1.0000,   0,1.0000,   0,1.0000,   0,1.0000,0, 1.0000
   31,'2 ',     0.980,    -0.600,     0.700,    -0.600,1.02000,    0,   100.000,   0.00000,   1.00000,   0.00000,   0.00000,1.00000,1,  100.0,     1.000,     0.200,   1,1.0000,   0,1.0000,   0,1.0000,   0,1.0000,0, 1.0000
   31,'3 ',     2.549,    -1.400,     1.700,    -1.400,1.02000,    0,   100.000,   0.00000,   1.00000,   0.00000,   0.00000,1.00000,1,  100.0,     2.600,     0.900,   1,1.0000,   0,1.0000,   0,1.0000,   0,1.0000,0, 1.0000
   31,'4 ',     2.549,    -1.400,     1.700,    -1.400,1.02000,    0,   100.000,   0.00000,   1.00000,   0.00000,   0.00000,1.00000,1,  100.0,     2.600,     0.900,   1,1.0000,   0,1.0000,   0,1.0000,   0,1.0000,0, 1.0000
   31,'5 ',     2.549,    -1.400,     1.700,    -1.400,1.02000,    0,   100.000,   0.00000,   1.00000,   0.00000,   0.00000,1.00000,1,  100.0,     2.600,     2.300,   1,1.0000,   0,1.0000,   0,1.0000,   0,1.0000,0, 1.0000
   31,'6 ',    24.113,    -3.042,    16.000,   -13.500,1.02000,    0,   100.000,   0.00000,   1.00000,   0.00000,   0.00000,1.00000,1,  100.0,    24.600,     6.000,   1,1.0000,   0,1.0000,   0,1.0000,   0,1.0000,0, 1.0000
   31,'7 ',    24.113,    -3.042,    16.000,   -13.500,1.02000,    0,   100.000,   0.00000,   1.00000,   0.00000,   0.00000,1.00000,1,  100.0,    24.600,     6.000,   1,1.0000,   0,1.0000,   0,1.0000,   0,1.0000,0, 1.0000
   32,'C1',   147.000,   -32.941,   110.250,  -102.900,1.02000,    0,   100.000,   0.00000,   1.00000,   0.00000,   0.00000,1.00000,1,  100.0,   147.000,   113.000,   1,1.0000,   0,1.0000,   0,1.0000,   0,1.0000,0, 1.0000
   33,'C1',    56.241,    -9.978,    42.450,   -39.620,1.02000,    0,   100.000,   0.00000,   1.00000,   0.00000,   0.00000,1.00000,1,  100.0,    56.600,    44.000,   1,1.0000,   0,1.0000,   0,1.0000,   0,1.0000,0, 1.0000
   34,'C1',    57.036,    14.685,    43.050,   -40.180,1.02000,    0,   100.000,   0.00000,   1.00000,   0.00000,   0.00000,1.00000,1,  100.0,    57.400,    44.500,   1,1.0000,   0,1.0000,   0,1.0000,   0,1.0000,0, 1.0000
   35,'1 ',     3.137,     2.100,     2.100,    -1.800,1.02000,    0,   100.000,   0.00000,   1.00000,   0.00000,   0.00000,1.00000,1,  100.0,     3.200,     0.000,   1,1.0000,   0,1.0000,   0,1.0000,   0,1.0000,0, 1.0000
   35,'2 ',     3.137,     2.100,     2.100,    -1.800,1.02000,    0,   100.000,   0.00000,   1.00000,   0.00000,   0.00000,1.00000,1,  100.0,     3.200,     0.000,   1,1.0000,   0,1.0000,   0,1.0000,   0,1.0000,0, 1.0000
   35,'3 ',     3.921,     2.600,     2.600,    -2.200,1.02000,    0,   100.000,   0.00000,   1.00000,   0.00000,   0.00000,1.00000,1,  100.0,     4.000,     0.000,   1,1.0000,   0,1.0000,   0,1.0000,   0,1.0000,0, 1.0000
   35,'4 ',     3.921,     2.600,     2.600,    -2.200,1.02000,    0,   100.000,   0.00000,   1.00000,   0.00000,   0.00000,1.00000,1,  100.0,     4.000,     0.000,   1,1.0000,   0,1.0000,   0,1.0000,   0,1.0000,0, 1.0000
   35,'5 ',     5.881,     3.900,     3.900,    -3.300,1.02000,    0,   100.000,   0.00000,   1.00000,   0.00000,   0.00000,1.00000,1,  100.0,     6.000,     0.000,   1,1.0000,   0,1.0000,   0,1.0000,   0,1.0000,0, 1.0000
   35,'6 ',     6.862,     4.600,     4.600,    -3.900,1.02000,    0,   100.000,   0.00000,   1.00000,   0.00000,   0.00000,1.00000,1,  100.0,     7.000,     0.000,   1,1.0000,   0,1.0000,   0,1.0000,   0,1.0000,0, 1.0000
   37,'C1',   190.435,    23.977,   165.975,  -154.910,1.02000,    0,   100.000,   0.00000,   1.00000,   0.00000,   0.00000,1.00000,1,  100.0,   221.300,   104.000,   1,1.0000,   0,1.0000,   0,1.0000,   0,1.0000,0, 1.0000
   38,'1 ',    99.863,   -12.180,    70.400,   -55.300,1.02000,    0,   100.000,   0.00000,   1.00000,   0.00000,   0.00000,1.00000,1,  100.0,   100.500,     0.000,   1,1.0000,   0,1.0000,   0,1.0000,   0,1.0000,1, 1.0000
   39,'1 ',   125.202,   -11.905,    88.200,   -69.300,1.02000,    0,   100.000,   0.00000,   1.00000,   0.00000,   0.00000,1.00000,1,  100.0,   126.000,     0.000,   1,1.0000,   0,1.0000,   0,1.0000,   0,1.0000,1, 1.0000
   41,'C1',    65.284,    14.880,    49.275,   -45.990,1.02000,    0,   100.000,   0.00000,   1.00000,   0.00000,   0.00000,1.00000,1,  100.0,    65.700,    40.600,   1,1.0000,   0,1.0000,   0,1.0000,   0,1.0000,0, 1.0000
   52,'1 ',    16.097,    -0.088,    11.300,    -8.900,1.02000,    0,   100.000,   0.00000,   1.00000,   0.00000,   0.00000,1.00000,1,  100.0,    16.200,     0.000,   1,1.0000,   0,1.0000,   0,1.0000,   0,1.0000,1, 1.0000
   53,'1 ',    37.262,    -8.526,    26.300,   -20.600,1.02000,    0,   100.000,   0.00000,   1.00000,   0.00000,   0.00000,1.00000,1,  100.0,    37.500,     0.000,   1,1.0000,   0,1.0000,   0,1.0000,   0,1.0000,1, 1.0000
   60,'1 ',     0.784,     0.600,     0.600,    -0.400,1.02000,    0,   100.000,   0.00000,   1.00000,   0.00000,   0.00000,1.00000,1,  100.0,     0.800,     0.400,   1,1.0000,   0,1.0000,   0,1.0000,   0,1.0000,0, 1.0000
   60,'2 ',     9.802,     2.231,     7.000,    -5.500,1.02000,    0,   100.000,   0.00000,   1.00000,   0.00000,   0.00000,1.00000,1,  100.0,    10.000,     4.000,   1,1.0000,   0,1.0000,   0,1.0000,   0,1.0000,0, 1.0000
   63,'C1',    80.814,     0.000,    66.150,   -61.740,1.02000,    0,   100.000,   0.00000,   1.00000,   0.00000,   0.00000,1.00000,0,  100.0,    88.200,    60.000,   1,1.0000,   0,1.0000,   0,1.0000,   0,1.0000,0, 1.0000
   63,'C2',   653.643,     8.894,   490.275,  -457.590,1.02000,    0,   100.000,   0.00000,   1.00000,   0.00000,   0.00000,1.00000,1,  100.0,   653.700,   315.000,   1,1.0000,   0,1.0000,   0,1.0000,   0,1.0000,0, 1.0000
   69,'1 ',    18.735,     0.000,    17.200,   -13.500,1.02000,    0,   100.000,   0.00000,   1.00000,   0.00000,   0.00000,1.00000,0,  100.0,    24.500,     5.000,   1,1.0000,   0,1.0000,   0,1.0000,   0,1.0000,0, 1.0000
   69,'2 ',    24.345,    -1.978,    17.200,   -13.500,1.02000,    0,   100.000,   0.00000,   1.00000,   0.00000,   0.00000,1.00000,1,  100.0,    24.500,     5.000,   1,1.0000,   0,1.0000,   0,1.0000,   0,1.0000,0, 1.0000
   69,'3 ',    47.000,    -1.978,    33.100,   -26.000,1.02000,    0,   100.000,   0.00000,   1.00000,   0.00000,   0.00000,1.00000,1,  100.0,    47.300,     9.000,   1,1.0000,   0,1.0000,   0,1.0000,   0,1.0000,0, 1.0000
   69,'X ',     0.000,     0.000,    20.000,   -20.000,1.02000,    0,   100.000,   0.00000,   1.00000,   0.00000,   0.00000,1.00000,0,  100.0,     0.000,     0.000,   1,1.0000,   0,1.0000,   0,1.0000,   0,1.0000,0, 1.0000
   79,'1 ',     0.780,     0.000,     0.700,    -0.600,1.02000,    0,   100.000,   0.00000,   1.00000,   0.00000,   0.00000,1.00000,0,  100.0,     1.000,     0.300,   1,1.0000,   0,1.0000,   0,1.0000,   0,1.0000,0, 1.0000
   79,'10',     7.452,    -4.100,     5.300,    -4.100,1.02000,    0,   100.000,   0.00000,   1.00000,   0.00000,   0.00000,1.00000,1,  100.0,     7.500,     4.000,   1,1.0000,   0,1.0000,   0,1.0000,   0,1.0000,0, 1.0000
   79,'11',    46.702,    -8.811,    32.900,   -25.900,1.02000,    0,   100.000,   0.00000,   1.00000,   0.00000,   0.00000,1.00000,1,  100.0,    47.000,     1.000,   1,1.0000,   0,1.0000,   0,1.0000,   0,1.0000,0, 1.0000
   79,'12',   136.607,     0.000,   109.300,   -85.900,1.02000,    0,   100.000,   0.00000,   1.00000,   0.00000,   0.00000,1.00000,0,  100.0,   156.200,    45.000,   1,1.0000,   0,1.0000,   0,1.0000,   0,1.0000,0, 1.0000
   79,'13',   178.859,    -8.811,   126.000,   -99.000,1.02000,    0,   100.000,   0.00000,   1.00000,   0.00000,   0.00000,1.00000,1,  100.0,   180.000,   110.000,   1,1.0000,   0,1.0000,   0,1.0000,   0,1.0000,0, 1.0000
   79,'14',   178.859,    -8.811,   126.000,   -99.000,1.02000,    0,   100.000,   0.00000,   1.00000,   0.00000,   0.00000,1.00000,1,  100.0,   180.000,   110.000,   1,1.0000,   0,1.0000,   0,1.0000,   0,1.0000,0, 1.0000
   79,'15',   174.913,     0.000,   140.000,  -110.000,1.02000,    0,   100.000,   0.00000,   1.00000,   0.00000,   0.00000,1.00000,0,  100.0,   200.000,    65.000,   1,1.0000,   0,1.0000,   0,1.0000,   0,1.0000,0, 1.0000
   79,'2 ',     1.015,     0.000,     0.900,    -0.700,1.02000,    0,   100.000,   0.00000,   1.00000,   0.00000,   0.00000,1.00000,0,  100.0,     1.300,     0.400,   1,1.0000,   0,1.0000,   0,1.0000,   0,1.0000,0, 1.0000
   79,'3 ',     1.093,     0.000,     1.000,    -0.800,1.02000,    0,   100.000,   0.00000,   1.00000,   0.00000,   0.00000,1.00000,0,  100.0,     1.400,     0.400,   1,1.0000,   0,1.0000,   0,1.0000,   0,1.0000,0, 1.0000
...